!-Generator IDFEditor 1.51
!-Option SortedOrder

!-NOTE: All comments with '!-' are ignored by the IDFEditor and are generated automatically.
!-      Use '!' comments if they need to be retained when using the IDFEditor.


!-   ===========  ALL OBJECTS IN CLASS: VERSION ===========

! GPARM parameters as run:
!    ID = US+MF+CZ1AWHT+hp+crawlspace+IECC_2021
!    weatherfile = USA_HI_Honolulu.Intl.AP.911820_TMY3.epw
!    climate_zone = Climate Zone 1
!    moisture_regime = Moist
!    humidity_designation = Warm-Humid
!    tropical_designation = Tropical
!    bldg_type = Multifamily
!    fndn_type = Crawlspace
!    system_tag = Heat Pump
!    code = IECC_2021
!    permits = 312.441976240705
!    vent_fan_efficacy = 1.4
!    cfm25 = 4
!    afn_control =
!    is_duct_base =
!    leakage_ratio = 0.0792
!    dhw_type =
!    TEMPLATE_PATH = template/v9.5
Version,
    9.5;                     !- Version Identifier


!-   ===========  ALL OBJECTS IN CLASS: SIMULATIONCONTROL ===========

SimulationControl,
    Yes,                     !- Do Zone Sizing Calculation
    Yes,                     !- Do System Sizing Calculation
    No,                      !- Do Plant Sizing Calculation
    Yes,                     !- Run Simulation for Sizing Periods
    Yes,                     !- Run Simulation for Weather File Run Periods
    ,                        !- Do HVAC Sizing Simulation for Sizing Periods
    ;                        !- Maximum Number of HVAC Sizing Simulation Passes


!-   ===========  ALL OBJECTS IN CLASS: BUILDING ===========

Building,
    US+MF+CZ1AWHT+hp+crawlspace+IECC_2021,  !- Name
    0,                       !- North Axis {deg}
    Suburbs,                 !- Terrain
    0.04,                    !- Loads Convergence Tolerance Value {W}
    0.4,                     !- Temperature Convergence Tolerance Value {deltaC}
    FullExterior,            !- Solar Distribution
    25,                      !- Maximum Number of Warmup Days
    6;                       !- Minimum Number of Warmup Days


!-   ===========  ALL OBJECTS IN CLASS: SURFACECONVECTIONALGORITHM:INSIDE ===========

SurfaceConvectionAlgorithm:Inside,
    TARP;                    !- Algorithm


!-   ===========  ALL OBJECTS IN CLASS: TIMESTEP ===========

Timestep,
    6;                       !- Number of Timesteps per Hour


!-   ===========  ALL OBJECTS IN CLASS: SITE:LOCATION ===========

! Location and design-day objects created by:
! Site:Location and design-day objects created by:
! ./tools/bin/ddy2idf ./tools/epw//USA_HI_Honolulu.Intl.AP.911820_TMY3.ddy
!
Site:Location,
    Honolulu Intl Arpt_HI_USA Design_Conditions,  !- Name
    21.32,                   !- Latitude {deg}
    -157.93,                 !- Longitude {deg}
    -10,                     !- Time Zone {hr}
    2;                       !- Elevation {m}


!-   ===========  ALL OBJECTS IN CLASS: SIZINGPERIOD:DESIGNDAY ===========

SizingPeriod:DesignDay,
    Honolulu Intl Arpt Ann Htg 99.6% Condns DB,  !- Name
    2,                       !- Month
    21,                      !- Day of Month
    WinterDesignDay,         !- Day Type
    16.2,                    !- Maximum Dry-Bulb Temperature {C}
    0,                       !- Daily Dry-Bulb Temperature Range {deltaC}
    DefaultMultipliers,      !- Dry-Bulb Temperature Range Modifier Type
    ,                        !- Dry-Bulb Temperature Range Modifier Day Schedule Name
    Wetbulb,                 !- Humidity Condition Type
    16.2,                    !- Wetbulb or DewPoint at Maximum Dry-Bulb {C}
    ,                        !- Humidity Condition Day Schedule Name
    ,                        !- Humidity Ratio at Maximum Dry-Bulb {kgWater/kgDryAir}
    ,                        !- Enthalpy at Maximum Dry-Bulb {J/kg}
    ,                        !- Daily Wet-Bulb Temperature Range {deltaC}
    101301,                  !- Barometric Pressure {Pa}
    1.9,                     !- Wind Speed {m/s}
    320,                     !- Wind Direction {deg}
    No,                      !- Rain Indicator
    No,                      !- Snow Indicator
    No,                      !- Daylight Saving Time Indicator
    ASHRAEClearSky,          !- Solar Model Indicator
    ,                        !- Beam Solar Day Schedule Name
    ,                        !- Diffuse Solar Day Schedule Name
    ,                        !- ASHRAE Clear Sky Optical Depth for Beam Irradiance (taub) {dimensionless}
    ,                        !- ASHRAE Clear Sky Optical Depth for Diffuse Irradiance (taud) {dimensionless}
    0;                       !- Sky Clearness

SizingPeriod:DesignDay,
    Honolulu Intl Arpt Ann Clg .4% Condns DB=>MWB,  !- Name
    8,                       !- Month
    21,                      !- Day of Month
    SummerDesignDay,         !- Day Type
    32.2,                    !- Maximum Dry-Bulb Temperature {C}
    7.1,                     !- Daily Dry-Bulb Temperature Range {deltaC}
    DefaultMultipliers,      !- Dry-Bulb Temperature Range Modifier Type
    ,                        !- Dry-Bulb Temperature Range Modifier Day Schedule Name
    Wetbulb,                 !- Humidity Condition Type
    23.3,                    !- Wetbulb or DewPoint at Maximum Dry-Bulb {C}
    ,                        !- Humidity Condition Day Schedule Name
    ,                        !- Humidity Ratio at Maximum Dry-Bulb {kgWater/kgDryAir}
    ,                        !- Enthalpy at Maximum Dry-Bulb {J/kg}
    ,                        !- Daily Wet-Bulb Temperature Range {deltaC}
    101301,                  !- Barometric Pressure {Pa}
    6.7,                     !- Wind Speed {m/s}
    60,                      !- Wind Direction {deg}
    No,                      !- Rain Indicator
    No,                      !- Snow Indicator
    No,                      !- Daylight Saving Time Indicator
    ASHRAETau,               !- Solar Model Indicator
    ,                        !- Beam Solar Day Schedule Name
    ,                        !- Diffuse Solar Day Schedule Name
    0.382,                   !- ASHRAE Clear Sky Optical Depth for Beam Irradiance (taub) {dimensionless}
    2.521;                   !- ASHRAE Clear Sky Optical Depth for Diffuse Irradiance (taud) {dimensionless}


!-   ===========  ALL OBJECTS IN CLASS: RUNPERIOD ===========

RunPeriod,
    annual,                  !- Name
    1,                       !- Begin Month
    1,                       !- Begin Day of Month
    ,                        !- Begin Year
    12,                      !- End Month
    31,                      !- End Day of Month
    ,                        !- End Year
    Sunday,                  !- Day of Week for Start Day
    Yes,                     !- Use Weather File Holidays and Special Days
    Yes,                     !- Use Weather File Daylight Saving Period
    No,                      !- Apply Weekend Holiday Rule
    Yes,                     !- Use Weather File Rain Indicators
    Yes;                     !- Use Weather File Snow Indicators


!-   ===========  ALL OBJECTS IN CLASS: SITE:WATERMAINSTEMPERATURE ===========

! Weather_file = USA_HI_Honolulu.Intl.AP.911820_TMY3.epw;
! Using the stat2idf and the ddy2idf script...
! Water mains temperature correlation object created by:
! Water mains temperature object created by:
! ./tools/bin/stat2idf ./tools/epw//USA_HI_Honolulu.Intl.AP.911820_TMY3.stat
!
Site:WaterMainsTemperature,
    Correlation,             !- Calculation Method
    ,                        !- Temperature Schedule Name
    24.9166666666667,        !- Annual Average Outdoor Air Temperature {C}
    4.6;                     !- Maximum Difference In Monthly Average Outdoor Air Temperatures {deltaC}


!-   ===========  ALL OBJECTS IN CLASS: SCHEDULETYPELIMITS ===========

ScheduleTypeLimits,
    any number;              !- Name

ScheduleTypeLimits,
    On/Off,                  !- Name
    0,                       !- Lower Limit Value
    1,                       !- Upper Limit Value
    Discrete;                !- Numeric Type

ScheduleTypeLimits,
    control_type,            !- Name
    0,                       !- Lower Limit Value
    4,                       !- Upper Limit Value
    Discrete;                !- Numeric Type

ScheduleTypeLimits,
    fraction,                !- Name
    0,                       !- Lower Limit Value
    1,                       !- Upper Limit Value
    Continuous;              !- Numeric Type

ScheduleTypeLimits,
    Temperature,             !- Name
    -60,                     !- Lower Limit Value
    200,                     !- Upper Limit Value
    Continuous;              !- Numeric Type


!-   ===========  ALL OBJECTS IN CLASS: SCHEDULE:DAY:HOURLY ===========

!
!
Schedule:Day:Hourly,
    OccupancyDay,            !- Name
    Fraction,                !- Schedule Type Limits Name
    1,                       !- Hour 1
    1,                       !- Hour 2
    1,                       !- Hour 3
    1,                       !- Hour 4
    1,                       !- Hour 5
    1,                       !- Hour 6
    1,                       !- Hour 7
    0.8831,                  !- Hour 8
    0.40861,                 !- Hour 9
    0.24189,                 !- Hour 10
    0.24189,                 !- Hour 11
    0.24189,                 !- Hour 12
    0.24189,                 !- Hour 13
    0.24189,                 !- Hour 14
    0.24189,                 !- Hour 15
    0.24189,                 !- Hour 16
    0.29498,                 !- Hour 17
    0.5531,                  !- Hour 18
    0.89693,                 !- Hour 19
    0.89693,                 !- Hour 20
    0.89693,                 !- Hour 21
    1,                       !- Hour 22
    1,                       !- Hour 23
    1;                       !- Hour 24

Schedule:Day:Hourly,
    LightingDay,             !- Name
    Fraction,                !- Schedule Type Limits Name
    0.0625,                  !- Hour 1
    0.0625,                  !- Hour 2
    0.0625,                  !- Hour 3
    0.0625,                  !- Hour 4
    0.1875,                  !- Hour 5
    0.390625,                !- Hour 6
    0.4375,                  !- Hour 7
    0.390625,                !- Hour 8
    0.171875,                !- Hour 9
    0.1171875,               !- Hour 10
    0.1171875,               !- Hour 11
    0.1171875,               !- Hour 12
    0.1171875,               !- Hour 13
    0.1171875,               !- Hour 14
    0.1171875,               !- Hour 15
    0.203125,                !- Hour 16
    0.4375,                  !- Hour 17
    0.609375,                !- Hour 18
    0.8203125,               !- Hour 19
    0.984375,                !- Hour 20
    1,                       !- Hour 21
    0.6875,                  !- Hour 22
    0.3828125,               !- Hour 23
    0.15625;                 !- Hour 24

Schedule:Day:Hourly,
    LightingDay_EELighting_OccSensors,  !- Name
    Fraction,                !- Schedule Type Limits Name
    0.065170403,             !- Hour 1
    0.065170403,             !- Hour 2
    0.065170403,             !- Hour 3
    0.065170403,             !- Hour 4
    0.195511208,             !- Hour 5
    0.407315016,             !- Hour 6
    0.456192818,             !- Hour 7
    0.407315016,             !- Hour 8
    0.179218607,             !- Hour 9
    0.122194505,             !- Hour 10
    0.122194505,             !- Hour 11
    0.122194505,             !- Hour 12
    0.122194505,             !- Hour 13
    0.122194505,             !- Hour 14
    0.122194505,             !- Hour 15
    0.211803808,             !- Hour 16
    0.456192818,             !- Hour 17
    0.635411425,             !- Hour 18
    0.855361533,             !- Hour 19
    0.947933128,             !- Hour 20
    0.947933128,             !- Hour 21
    0.716874428,             !- Hour 22
    0.399168715,             !- Hour 23
    0.162926006;             !- Hour 24

Schedule:Day:Hourly,
    LightingDay_EELighting_Garage_OccSensors,  !- Name
    Fraction,                !- Schedule Type Limits Name
    0.048125,                !- Hour 1
    0.048125,                !- Hour 2
    0.048125,                !- Hour 3
    0.048125,                !- Hour 4
    0.144375,                !- Hour 5
    0.30078125,              !- Hour 6
    0.336875,                !- Hour 7
    0.30078125,              !- Hour 8
    0.13234375,              !- Hour 9
    0.090234375,             !- Hour 10
    0.090234375,             !- Hour 11
    0.090234375,             !- Hour 12
    0.090234375,             !- Hour 13
    0.090234375,             !- Hour 14
    0.090234375,             !- Hour 15
    0.15640625,              !- Hour 16
    0.336875,                !- Hour 17
    0.46921875,              !- Hour 18
    0.631640625,             !- Hour 19
    0.7,                     !- Hour 20
    0.7,                     !- Hour 21
    0.529375,                !- Hour 22
    0.294765625,             !- Hour 23
    0.1203125;               !- Hour 24

Schedule:Day:Hourly,
    ExteriorLightingDay,     !- Name
    Fraction,                !- Schedule Type Limits Name
    1,                       !- Hour 1
    1,                       !- Hour 2
    1,                       !- Hour 3
    1,                       !- Hour 4
    1,                       !- Hour 5
    1,                       !- Hour 6
    0,                       !- Hour 7
    0,                       !- Hour 8
    0,                       !- Hour 9
    0,                       !- Hour 10
    0,                       !- Hour 11
    0,                       !- Hour 12
    0,                       !- Hour 13
    0,                       !- Hour 14
    0,                       !- Hour 15
    0,                       !- Hour 16
    0,                       !- Hour 17
    0,                       !- Hour 18
    1,                       !- Hour 19
    1,                       !- Hour 20
    1,                       !- Hour 21
    1,                       !- Hour 22
    1,                       !- Hour 23
    1;                       !- Hour 24

Schedule:Day:Hourly,
    LightingDay_EELighting,  !- Name
    Fraction,                !- Schedule Type Limits Name
    0.06875,                 !- Hour 1
    0.06875,                 !- Hour 2
    0.06875,                 !- Hour 3
    0.06875,                 !- Hour 4
    0.20625,                 !- Hour 5
    0.4296875,               !- Hour 6
    0.48125,                 !- Hour 7
    0.4296875,               !- Hour 8
    0.1890625,               !- Hour 9
    0.12890625,              !- Hour 10
    0.12890625,              !- Hour 11
    0.12890625,              !- Hour 12
    0.12890625,              !- Hour 13
    0.12890625,              !- Hour 14
    0.12890625,              !- Hour 15
    0.2234375,               !- Hour 16
    0.48125,                 !- Hour 17
    0.6703125,               !- Hour 18
    0.90234375,              !- Hour 19
    1,                       !- Hour 20
    1,                       !- Hour 21
    0.75625,                 !- Hour 22
    0.42109375,              !- Hour 23
    0.171875;                !- Hour 24

Schedule:Day:Hourly,
    RefrigeratorDay,         !- Name
    Fraction,                !- Schedule Type Limits Name
    0.8,                     !- Hour 1
    0.782696177062374,       !- Hour 2
    0.765593561368209,       !- Hour 3
    0.742857142857143,       !- Hour 4
    0.731388329979879,       !- Hour 5
    0.731388329979879,       !- Hour 6
    0.759959758551308,       !- Hour 7
    0.8,                     !- Hour 8
    0.817102615694165,       !- Hour 9
    0.828571428571429,       !- Hour 10
    0.8,                     !- Hour 11
    0.8,                     !- Hour 12
    0.839839034205231,       !- Hour 13
    0.839839034205231,       !- Hour 14
    0.828571428571429,       !- Hour 15
    0.839839034205231,       !- Hour 16
    0.885714285714286,       !- Hour 17
    0.971428571428572,       !- Hour 18
    1,                       !- Hour 19
    0.971428571428572,       !- Hour 20
    0.942857142857143,       !- Hour 21
    0.925553319919517,       !- Hour 22
    0.885714285714286,       !- Hour 23
    0.828571428571429;       !- Hour 24

Schedule:Day:Hourly,
    MiscPlugLoadDay,         !- Name
    Fraction,                !- Schedule Type Limits Name
    0.607490272373541,       !- Hour 1
    0.559338521400778,       !- Hour 2
    0.552853437094682,       !- Hour 3
    0.545071335927367,       !- Hour 4
    0.524481193255512,       !- Hour 5
    0.585278858625162,       !- Hour 6
    0.676232166018158,       !- Hour 7
    0.718547341115435,       !- Hour 8
    0.607490272373541,       !- Hour 9
    0.517023346303502,       !- Hour 10
    0.529182879377432,       !- Hour 11
    0.529345006485084,       !- Hour 12
    0.520428015564202,       !- Hour 13
    0.538424124513619,       !- Hour 14
    0.568741893644617,       !- Hour 15
    0.600356679636835,       !- Hour 16
    0.71011673151751,        !- Hour 17
    0.862678339818418,       !- Hour 18
    0.936608300907912,       !- Hour 19
    0.966763942931258,       !- Hour 20
    1,                       !- Hour 21
    0.976653696498055,       !- Hour 22
    0.845168612191959,       !- Hour 23
    0.73443579766537;        !- Hour 24

Schedule:Day:Hourly,
    CookingRangeDay,         !- Name
    Fraction,                !- Schedule Type Limits Name
    0.04715848452508,        !- Hour 1
    0.04715848452508,        !- Hour 2
    0.0235458911419424,      !- Hour 3
    0.0235458911419424,      !- Hour 4
    0.04715848452508,        !- Hour 5
    0.0707043756670224,      !- Hour 6
    0.165088046958378,       !- Hour 7
    0.283017609391676,       !- Hour 8
    0.306563500533618,       !- Hour 9
    0.320771077908218,       !- Hour 10
    0.283017609391676,       !- Hour 11
    0.330176093916756,       !- Hour 12
    0.377334578441836,       !- Hour 13
    0.306563500533618,       !- Hour 14
    0.292422625400213,       !- Hour 15
    0.377334578441836,       !- Hour 16
    0.613193703308431,       !- Hour 17
    1,                       !- Hour 18
    0.778348452508004,       !- Hour 19
    0.400947171824973,       !- Hour 20
    0.235859124866596,       !- Hour 21
    0.165088046958378,       !- Hour 22
    0.103721985058698,       !- Hour 23
    0.0707043756670224;      !- Hour 24

Schedule:Day:Hourly,
    DishwasherWeekday,       !- Name
    Fraction,                !- Schedule Type Limits Name
    0.115341807909605,       !- Hour 1
    0.0512463276836156,      !- Hour 2
    0.0383971751412427,      !- Hour 3
    0.0256231638418081,      !- Hour 4
    0.0256231638418081,      !- Hour 5
    0.0768694915254237,      !- Hour 6
    0.153814124293785,       !- Hour 7
    0.230758757062147,       !- Hour 8
    0.435969491525424,       !- Hour 9
    0.487215819209039,       !- Hour 10
    0.423120338983051,       !- Hour 11
    0.359024858757063,       !- Hour 12
    0.307703389830508,       !- Hour 13
    0.34617570621469,        !- Hour 14
    0.282080225988701,       !- Hour 15
    0.269231073446328,       !- Hour 16
    0.282080225988701,       !- Hour 17
    0.371798870056497,       !- Hour 18
    0.653954237288135,       !- Hour 19
    0.833466666666664,       !- Hour 20
    0.679577401129944,       !- Hour 21
    0.500064971751412,       !- Hour 22
    0.333326553672317,       !- Hour 23
    0.230758757062147;       !- Hour 24

Schedule:Day:Hourly,
    DishwasherWeekend,       !- Name
    Fraction,                !- Schedule Type Limits Name
    0.123580508474576,       !- Hour 1
    0.054906779661017,       !- Hour 2
    0.0411398305084745,      !- Hour 3
    0.0274533898305084,      !- Hour 4
    0.0274533898305084,      !- Hour 5
    0.0823601694915254,      !- Hour 6
    0.164800847457627,       !- Hour 7
    0.247241525423729,       !- Hour 8
    0.467110169491526,       !- Hour 9
    0.522016949152542,       !- Hour 10
    0.453343220338983,       !- Hour 11
    0.384669491525423,       !- Hour 12
    0.329682203389831,       !- Hour 13
    0.370902542372881,       !- Hour 14
    0.302228813559322,       !- Hour 15
    0.28846186440678,        !- Hour 16
    0.302228813559322,       !- Hour 17
    0.39835593220339,        !- Hour 18
    0.700665254237288,       !- Hour 19
    0.893,                   !- Hour 20
    0.728118644067796,       !- Hour 21
    0.535783898305085,       !- Hour 22
    0.357135593220339,       !- Hour 23
    0.247241525423729;       !- Hour 24

Schedule:Day:Hourly,
    DishwasherVacation,      !- Name
    Fraction,                !- Schedule Type Limits Name
    0,                       !- Hour 1
    0,                       !- Hour 2
    0,                       !- Hour 3
    0,                       !- Hour 4
    0,                       !- Hour 5
    0,                       !- Hour 6
    0,                       !- Hour 7
    0,                       !- Hour 8
    0,                       !- Hour 9
    0,                       !- Hour 10
    0,                       !- Hour 11
    0,                       !- Hour 12
    0,                       !- Hour 13
    0,                       !- Hour 14
    0,                       !- Hour 15
    0,                       !- Hour 16
    0,                       !- Hour 17
    0,                       !- Hour 18
    0,                       !- Hour 19
    0,                       !- Hour 20
    0,                       !- Hour 21
    0,                       !- Hour 22
    0,                       !- Hour 23
    0;                       !- Hour 24

Schedule:Day:Hourly,
    ClothesWasherWeekday,    !- Name
    Fraction,                !- Schedule Type Limits Name
    0.0792922803078573,      !- Hour 1
    0.0634168451712738,      !- Hour 2
    0.0316659748981059,      !- Hour 3
    0.0316659748981059,      !- Hour 4
    0.0634168451712738,      !- Hour 5
    0.0951677154444406,      !- Hour 6
    0.190335430888883,       !- Hour 7
    0.412506627425994,       !- Hour 8
    0.618802388826521,       !- Hour 9
    0.729930434782609,       !- Hour 10
    0.714054999646026,       !- Hour 11
    0.634677823963106,       !- Hour 12
    0.57117608341677,        !- Hour 13
    0.507759238245497,       !- Hour 14
    0.444257497699161,       !- Hour 15
    0.412506627425994,       !- Hour 16
    0.428382062562577,       !- Hour 17
    0.412506627425994,       !- Hour 18
    0.412506627425994,       !- Hour 19
    0.412506627425994,       !- Hour 20
    0.412506627425994,       !- Hour 21
    0.39663119228941,        !- Hour 22
    0.269712606571801,       !- Hour 23
    0.142794020854192;       !- Hour 24

Schedule:Day:Hourly,
    ClothesWasherWeekend,    !- Name
    Fraction,                !- Schedule Type Limits Name
    0.0970065131425914,      !- Hour 1
    0.0775844382414515,      !- Hour 2
    0.0387402884391719,      !- Hour 3
    0.0387402884391719,      !- Hour 4
    0.0775844382414515,      !- Hour 5
    0.116428588043731,       !- Hour 6
    0.232857176087462,       !- Hour 7
    0.504662363340312,       !- Hour 8
    0.757045475692021,       !- Hour 9
    0.893,                   !- Hour 10
    0.87357792509886,        !- Hour 11
    0.776467550593161,       !- Hour 12
    0.698779250988602,       !- Hour 13
    0.621194812747151,       !- Hour 14
    0.543506513142591,       !- Hour 15
    0.504662363340312,       !- Hour 16
    0.524084438241451,       !- Hour 17
    0.504662363340312,       !- Hour 18
    0.504662363340312,       !- Hour 19
    0.504662363340312,       !- Hour 20
    0.504662363340312,       !- Hour 21
    0.485240288439172,       !- Hour 22
    0.329967550593161,       !- Hour 23
    0.174694812747151;       !- Hour 24

Schedule:Day:Hourly,
    ClothesWasherVacation,   !- Name
    Fraction,                !- Schedule Type Limits Name
    0,                       !- Hour 1
    0,                       !- Hour 2
    0,                       !- Hour 3
    0,                       !- Hour 4
    0,                       !- Hour 5
    0,                       !- Hour 6
    0,                       !- Hour 7
    0,                       !- Hour 8
    0,                       !- Hour 9
    0,                       !- Hour 10
    0,                       !- Hour 11
    0,                       !- Hour 12
    0,                       !- Hour 13
    0,                       !- Hour 14
    0,                       !- Hour 15
    0,                       !- Hour 16
    0,                       !- Hour 17
    0,                       !- Hour 18
    0,                       !- Hour 19
    0,                       !- Hour 20
    0,                       !- Hour 21
    0,                       !- Hour 22
    0,                       !- Hour 23
    0;                       !- Hour 24

Schedule:Day:Hourly,
    dhw_profile_day,         !- Name
    fraction,                !- Schedule Type Limits Name
    0.006,                   !- Hour 1
    0.003,                   !- Hour 2
    0.001,                   !- Hour 3
    0.001,                   !- Hour 4
    0.003,                   !- Hour 5
    0.021,                   !- Hour 6
    0.075,                   !- Hour 7
    0.079,                   !- Hour 8
    0.076,                   !- Hour 9
    0.067,                   !- Hour 10
    0.061,                   !- Hour 11
    0.05,                    !- Hour 12
    0.042,                   !- Hour 13
    0.038,                   !- Hour 14
    0.033,                   !- Hour 15
    0.038,                   !- Hour 16
    0.043,                   !- Hour 17
    0.058,                   !- Hour 18
    0.068,                   !- Hour 19
    0.065,                   !- Hour 20
    0.06,                    !- Hour 21
    0.047,                   !- Hour 22
    0.041,                   !- Hour 23
    0.024;                   !- Hour 24

Schedule:Day:Hourly,
    ClothesDryerWeekday,     !- Name
    Fraction,                !- Schedule Type Limits Name
    0.0996818663838815,      !- Hour 1
    0.0598091198303289,      !- Hour 2
    0.0398727465535526,      !- Hour 3
    0.0199363732767763,      !- Hour 4
    0.0398727465535526,      !- Hour 5
    0.0598091198303289,      !- Hour 6
    0.15949098621421,        !- Hour 7
    0.31898197242842,        !- Hour 8
    0.486427370202556,       !- Hour 9
    0.685791102970318,       !- Hour 10
    0.785472969354199,       !- Hour 11
    0.817391304347826,       !- Hour 12
    0.745600222800647,       !- Hour 13
    0.677836691410393,       !- Hour 14
    0.610073160020138,       !- Hour 15
    0.578154825026511,       !- Hour 16
    0.558218451749735,       !- Hour 17
    0.546236490032885,       !- Hour 18
    0.518345705196183,       !- Hour 19
    0.510391293636256,       !- Hour 20
    0.526300116756109,       !- Hour 21
    0.546236490032885,       !- Hour 22
    0.438600212089077,       !- Hour 23
    0.239236479321316;       !- Hour 24

Schedule:Day:Hourly,
    ClothesDryerWeekend,     !- Name
    Fraction,                !- Schedule Type Limits Name
    0.121951219512195,       !- Hour 1
    0.0731707317073171,      !- Hour 2
    0.0487804878048781,      !- Hour 3
    0.024390243902439,       !- Hour 4
    0.0487804878048781,      !- Hour 5
    0.0731707317073171,      !- Hour 6
    0.195121951219512,       !- Hour 7
    0.390243902439024,       !- Hour 8
    0.59509731460951,        !- Hour 9
    0.8389997536339,         !- Hour 10
    0.960950973146095,       !- Hour 11
    1,                       !- Hour 12
    0.912170485341217,       !- Hour 13
    0.829268292682927,       !- Hour 14
    0.746366100024637,       !- Hour 15
    0.707317073170732,       !- Hour 16
    0.682926829268293,       !- Hour 17
    0.668268046316827,       !- Hour 18
    0.634146341463415,       !- Hour 19
    0.624414880512441,       !- Hour 20
    0.643877802414388,       !- Hour 21
    0.668268046316827,       !- Hour 22
    0.536585365853659,       !- Hour 23
    0.292682926829268;       !- Hour 24

Schedule:Day:Hourly,
    ClothesDryerVacation,    !- Name
    Fraction,                !- Schedule Type Limits Name
    0,                       !- Hour 1
    0,                       !- Hour 2
    0,                       !- Hour 3
    0,                       !- Hour 4
    0,                       !- Hour 5
    0,                       !- Hour 6
    0,                       !- Hour 7
    0,                       !- Hour 8
    0,                       !- Hour 9
    0,                       !- Hour 10
    0,                       !- Hour 11
    0,                       !- Hour 12
    0,                       !- Hour 13
    0,                       !- Hour 14
    0,                       !- Hour 15
    0,                       !- Hour 16
    0,                       !- Hour 17
    0,                       !- Hour 18
    0,                       !- Hour 19
    0,                       !- Hour 20
    0,                       !- Hour 21
    0,                       !- Hour 22
    0,                       !- Hour 23
    0;                       !- Hour 24

Schedule:Day:Hourly,
    SinksWeekday,            !- Name
    Fraction,                !- Schedule Type Limits Name
    0.159338963523772,       !- Hour 1
    0.0764061837801136,      !- Hour 2
    0.0572765059559328,      !- Hour 3
    0.0572765059559328,      !- Hour 4
    0.0764061837801136,      !- Hour 5
    0.204012387619068,       !- Hour 6
    0.478129418087929,       !- Hour 7
    0.701271483531179,       !- Hour 8
    0.739530839179543,       !- Hour 9
    0.694857415084247,       !- Hour 10
    0.612037162857202,       !- Hour 11
    0.560949670314975,       !- Hour 12
    0.548234060937726,       !- Hour 13
    0.509974705289362,       !- Hour 14
    0.465301281194067,       !- Hour 15
    0.484430959018249,       !- Hour 16
    0.541819992490793,       !- Hour 17
    0.733116770732611,       !- Hour 18
    0.841480769230769,       !- Hour 19
    0.777790194827906,       !- Hour 20
    0.637468381611702,       !- Hour 21